[TITLE]
;;Project Title/Notes

[OPTIONS]
;;Option             Value
FLOW_UNITS           CMS
INFILTRATION         HORTON
FLOW_ROUTING         DYNWAVE
LINK_OFFSETS         DEPTH
MIN_SLOPE            0
ALLOW_PONDING        NO
SKIP_STEADY_STATE    NO

START_DATE           10/18/2019
START_TIME           00:00:00
REPORT_START_DATE    10/18/2019
REPORT_START_TIME    00:00:00
END_DATE             10/18/2019
END_TIME             04:00:00
SWEEP_START          01/01
SWEEP_END            12/31
DRY_DAYS             0
REPORT_STEP          00:15:00
WET_STEP             00:05:00
DRY_STEP             01:00:00
ROUTING_STEP         0:00:10 

INERTIAL_DAMPING     PARTIAL
NORMAL_FLOW_LIMITED  BOTH
FORCE_MAIN_EQUATION  H-W
VARIABLE_STEP        0.75
LENGTHENING_STEP     0
MIN_SURFAREA         1.14
MAX_TRIALS           8
HEAD_TOLERANCE       0.0015
SYS_FLOW_TOL         5
LAT_FLOW_TOL         5

[EVAPORATION]
;;Evap Data      Parameters
;;-------------- ----------------
CONSTANT         0.0
DRY_ONLY         NO

[RAINGAGES]
;;Gage           Format    Interval SCF      Source    
;;-------------- --------- ------ ------ ----------
rainGage         VOLUME    0:01     1.0      TIMESERIES rain            

[SUBCATCHMENTS]
;;Subcatchment   Rain Gage        Outlet           Area     %Imperv  Width    %Slope   CurbLen  Snow Pack       
;;-------------- ---------------- ---------------- -------- -------- -------- -------- -------- ----------------
sub0             rainGage         sub2             120.3783 1.21     726.8920 3.76     0.00                     
sub1             rainGage         sub2             45.5869  2.65     323.6520 3.43     0.00                     
sub2             rainGage         sub4             12.2288  0.36     196.8780 3.56     0.00                     
sub3             rainGage         sub4             81.2873  1.60     583.3040 3.37     0.00                     
sub4             rainGage         sub6             63.8139  0.70     514.0420 3.67     0.00                     
sub5             rainGage         sub6             27.4236  0.00     253.9730 3.47     0.00                     
sub6             rainGage         sub8             24.5365  0.68     265.8540 3.62     0.00                     
sub7             rainGage         sub8             48.7364  0.67     335.2440 3.22     0.00                     
sub8             rainGage         BY92682          221.8841 1.14     926.7540 3.53     0.00                     
sub9             rainGage         5389             55.3661  1.81     343.6840 3.16     0.00                     
sub10            rainGage         5581             31.7150  14.62    322.4400 2.53     0.00                     
sub11            rainGage         5537             155.6772 0.96     580.6460 3.23     0.00                     
sub12            rainGage         5410             28.2684  1.02     293.1880 3.00     0.00                     
sub13            rainGage         5397             56.3652  4.69     376.1050 2.94     0.00                     
sub14            rainGage         5410             9.8483   0.64     162.9560 3.07     0.00                     
sub15            rainGage         5537             57.6767  0.23     281.3670 3.27     0.00                     
sub16            rainGage         5397             63.0861  7.37     452.2410 2.73     0.00                     
sub17            rainGage         5285             51.2505  14.86    432.3360 2.11     0.00                     
sub18            rainGage         5664             17.2893  0.65     241.1450 2.94     0.00                     
sub19            rainGage         5664             67.2268  0.28     312.9750 3.41     0.00                     
sub20            rainGage         5581             132.0798 0.76     544.8120 3.08     0.00                     
sub21            rainGage         BY094707         49.0725  15.89    398.6870 2.34     0.00                     
sub22            rainGage         5669             195.8149 0.85     594.7920 3.13     0.00                     
sub23            rainGage         BY129092         21.4501  36.15    251.5240 1.56     0.00                     
sub24            rainGage         BY129098         53.0299  14.84    370.1690 2.11     0.00                     
sub25            rainGage         5315             43.4864  6.18     474.7840 2.00     0.00                     
sub26            rainGage         BY127809         31.5304  21.00    350.1200 1.51     0.00                     
sub27            rainGage         AY220322         14.1159  84.60    282.7150 1.59     0.00                     
sub28            rainGage         AY220256         14.1251  77.82    279.5370 6.74     0.00                     
sub29            rainGage         5397             13.0667  39.99    274.2890 1.34     0.00                     
sub30            rainGage         BY204938         20.8476  62.47    338.5590 7.74     0.00                     
sub31            rainGage         BY92722          21.6864  56.85    286.5840 5.40     0.00                     
sub32            rainGage         BY71892          37.1642  66.12    514.4130 7.81     0.00                     
sub33            rainGage         5418             16.9527  15.58    254.1470 2.88     0.00                     
sub34            rainGage         5536             75.4240  41.94    468.0080 6.54     0.00                     
sub35            rainGage         BY52740          13.7167  72.98    199.2470 4.41     0.00                     
sub36            rainGage         5669             19.1706  47.52    216.1440 1.36     0.00                     
sub37            rainGage         5582             7.2862   98.51    153.8880 2.40     0.00                     
sub38            rainGage         BY112520         13.7027  78.01    266.6650 8.95     0.00                     
sub39            rainGage         AY103205         13.1237  99.31    203.6280 1.95     0.00                     
sub40            rainGage         5521             28.7040  88.61    297.3920 3.18     0.00                     
sub43            rainGage         AY235362         7.6655   61.18    226.7020 0.10     0.00                     
sub44            rainGage         AY235314         17.3961  81.35    270.7710 0.30     0.00                     
sub45            rainGage         AY235267         12.2514  51.81    287.2000 1.09     0.00                     
sub46            rainGage         AY212954         18.8835  99.19    289.5130 2.66     0.00                     
sub47            rainGage         BY183286         16.3756  93.59    339.6700 5.13     0.00                     
sub48            rainGage         BY52479          12.6223  97.45    320.9890 2.53     0.00                     
sub49            rainGage         BY52435          12.1663  99.81    309.0960 1.78     0.00                     
sub50            rainGage         AY235224         7.1450   96.44    231.0510 0.50     0.00                     
sub51            rainGage         AY235311         10.4949  85.90    249.9740 1.28     0.00                     
sub52            rainGage         BY183340         13.7708  83.44    307.2280 2.73     0.00                     
sub53            rainGage         BY238995         8.0650   84.27    151.3610 2.02     0.00                     
sub54            rainGage         BY239014         12.9542  92.48    231.0390 3.29     0.00                     
sub55            rainGage         5669             14.6660  65.95    268.4620 2.53     0.00                     
sub56            rainGage         CY0881           9.5065   85.76    204.9950 1.72     0.00                     
sub57            rainGage         CY234247         8.6903   62.99    181.2990 2.45     0.00                     
sub58            rainGage         CY0882           9.2411   90.64    230.4960 1.74     0.00                     
sub59            rainGage         BY27967          7.0474   82.03    173.9270 2.03     0.00                     
sub60            rainGage         BY87654          9.7214   86.81    224.3000 1.48     0.00                     
sub61            rainGage         BY88947          8.2428   90.74    192.3200 2.65     0.00                     
sub62            rainGage         5428             6.5637   82.01    221.3310 1.60     0.00                     
sub63            rainGage         BY52760          7.8106   68.52    218.0500 4.15     0.00                     
sub64            rainGage         BY28091          10.5382  78.94    240.7780 1.45     0.00                     
sub65            rainGage         BY44968          4.9216   68.45    191.1160 2.33     0.00                     
sub66            rainGage         BY44958          17.9520  92.41    285.8330 1.98     0.00                     
sub67            rainGage         BY44958          3.2596   73.35    106.4860 2.06     0.00                     
sub68            rainGage         BY45352          9.3606   95.06    233.7800 2.51     0.00                     
sub69            rainGage         BY28106          5.6238   97.11    176.4460 2.02     0.00                     
sub70            rainGage         BY44957          4.1058   81.74    172.3680 1.24     0.00                     
sub71            rainGage         BY44968          10.1992  75.33    184.9250 1.90     0.00                     
sub72            rainGage         BY28092          6.2307   86.49    179.8000 1.91     0.00                     
sub73            rainGage         BY28076          4.5797   97.97    159.5450 1.42     0.00                     
sub74            rainGage         BY28051          7.8349   98.47    200.3930 2.48     0.00                     
sub75            rainGage         BY28594          8.4501   82.17    131.2510 2.61     0.00                     
sub76            rainGage         3072             23.4913  71.36    316.5350 2.65     0.00                     
sub77            rainGage         BY49395          5.6254   74.95    141.7870 1.55     0.00                     
sub78            rainGage         BY88038          17.1334  83.99    339.7440 4.32     0.00                     
sub79            rainGage         BY88040          4.9425   77.30    126.1810 1.40     0.00                     
sub80            rainGage         5375             1.1834   93.62    46.4588  1.83     0.00                     
sub81            rainGage         BY49408          5.2506   33.92    133.2010 1.86     0.00                     
sub82            rainGage         3109             4.2544   52.94    149.3160 1.85     0.00                     
sub85            rainGage         BY49378          3.0814   93.52    152.9840 2.20     0.00                     
sub86            rainGage         BY49408          6.6335   75.89    193.2850 4.61     0.00                     
sub87            rainGage         5403             13.2974  37.30    272.7460 2.69     0.00                     
sub88            rainGage         AY220256         9.0807   68.72    197.6780 1.85     0.00                     
sub89            rainGage         BY094710         2.2052   77.53    82.6693  7.46     0.00                     
sub90            rainGage         5404             6.3401   67.39    150.7560 2.05     0.00                     
sub91            rainGage         AY220262         17.0697  9.80     215.0690 1.91     0.00                     
sub92            rainGage         5675             2.9288   98.50    110.0650 1.90     0.00                     
sub93            rainGage         BY239038         4.7875   90.03    187.0430 2.09     0.00                     
sub94            rainGage         BY28825          4.8963   94.74    116.0200 1.35     0.00                     
sub95            rainGage         BY29052          13.4521  94.93    229.3100 1.61     0.00                     
sub96            rainGage         BY28830          10.5754  98.16    249.3210 1.68     0.00                     
sub97            rainGage         BY29051          12.0391  96.46    303.8550 1.77     0.00                     
sub98            rainGage         BY26738          3.6867   83.93    150.7020 1.21     0.00                     
sub99            rainGage         BY34002          10.1042  89.64    240.4350 1.44     0.00                     
sub100           rainGage         BY34001          3.4121   98.72    150.0220 1.45     0.00                     
sub101           rainGage         BY34257          2.8208   75.76    141.4010 1.05     0.00                     
sub102           rainGage         BY45087          3.1664   81.96    125.1830 0.70     0.00                     
sub103           rainGage         BY35110          3.1858   95.89    113.7150 1.88     0.00                     
sub104           rainGage         BY35059          4.8294   74.24    189.0350 1.11     0.00                     
sub105           rainGage         BY44932          4.1726   74.44    167.9510 1.42     0.00                     
sub106           rainGage         BY45352          3.5378   96.92    165.3610 1.20     0.00                     
sub107           rainGage         BY45243          6.2924   84.47    156.4170 1.22     0.00                     
sub108           rainGage         BY28039          7.0546   96.73    252.3750 1.87     0.00                     
sub109           rainGage         BY35040          8.2048   68.88    223.6050 1.35     0.00                     
sub110           rainGage         BY27991          6.4521   88.14    229.1810 1.38     0.00                     
sub111           rainGage         BY28007          6.2067   82.27    224.5370 1.31     0.00                     
sub112           rainGage         5371             2.6804   89.26    98.7320  3.61     0.00                     
sub113           rainGage         BY27987          3.2511   86.65    116.3350 1.34     0.00                     
sub114           rainGage         AY135098         4.2395   92.70    166.2050 1.15     0.00                     
sub115           rainGage         BY90214          5.3005   97.27    185.4510 6.09     0.00                     
sub116           rainGage         BY90226          1.8025   94.42    74.5499  2.15     0.00                     
sub117           rainGage         BY28568          5.0310   83.93    206.7930 5.82     0.00                     
sub118           rainGage         5369             3.0059   83.84    107.6880 2.42     0.00                     
sub119           rainGage         BY105190         2.0631   83.21    89.5346  1.70     0.00                     
sub120           rainGage         CY0077           5.5896   98.18    196.7450 1.00     0.00                     
sub121           rainGage         BY28520          10.2893  89.25    227.4390 1.39     0.00                     
sub122           rainGage         BY49448          8.9887   75.71    248.3280 1.47     0.00                     
sub123           rainGage         AY234750         3.8977   58.95    117.2740 1.54     0.00                     
sub124           rainGage         CY0034           3.7632   79.24    144.6490 1.11     0.00                     
sub125           rainGage         BY093045         9.8046   71.92    188.8040 2.32     0.00                     
sub126           rainGage         BY49492          13.9067  60.08    321.8970 1.48     0.00                     
sub127           rainGage         BY19290          6.4231   78.45    179.4650 1.40     0.00                     
sub128           rainGage         BY19317          4.2098   62.31    125.0400 1.42     0.00                     
sub129           rainGage         BY094495         5.1956   79.92    189.6460 1.31     0.00                     
sub130           rainGage         BY094504         7.8736   56.89    222.3580 1.12     0.00                     
sub131           rainGage         BY137532         0.0069   25.00    2.1213   0.20     0.00                     
sub132           rainGage         BY137408         0.0064   0.00     0.9079   0.01     0.00                     
sub133           rainGage         CY0034           8.8859   55.21    224.2080 0.84     0.00                     
sub134           rainGage         BY137517         10.4806  77.80    236.6290 4.28     0.00                     
sub135           rainGage         BY19283          11.0471  73.09    230.3130 0.64     0.00                     
sub136           rainGage         BY31415          9.3343   49.94    218.2250 0.99     0.00                     
sub137           rainGage         CP0001           5.7448   94.24    158.3390 1.55     0.00                     
sub138           rainGage         BY31383          6.2181   90.79    156.1330 0.74     0.00                     
sub139           rainGage         5324             5.2981   73.77    154.2790 5.94     0.00                     
sub140           rainGage         BY31373          3.6323   94.30    173.0540 1.11     0.00                     
sub141           rainGage         BY0111           4.8550   95.84    183.1480 0.63     0.00                     
sub142           rainGage         CY0049           7.5885   97.33    210.1280 1.09     0.00                     
sub143           rainGage         CY0034           4.0819   91.90    130.1190 1.15     0.00                     
sub144           rainGage         AY224573         2.8370   96.11    146.0490 1.05     0.00                     
sub145           rainGage         BP0030           2.1285   97.45    116.8270 0.92     0.00                     
sub146           rainGage         CY0067           5.0256   91.11    182.5310 1.36     0.00                     
sub147           rainGage         CY0044           3.8749   91.63    110.9820 1.13     0.00                     
sub148           rainGage         BP008347         5.4637   96.18    152.3480 1.11     0.00                     
sub149           rainGage         BP0022           3.1319   95.59    88.1187  1.01     0.00                     
sub150           rainGage         BP0015           2.1009   92.42    115.1570 1.03     0.00                     
sub151           rainGage         BP0001           2.0375   96.14    100.6170 0.90     0.00                     
sub152           rainGage         BP008338         5.7231   99.18    148.2040 1.55     0.00                     
sub153           rainGage         CY0517           6.8838   78.01    202.6430 1.08     0.00                     
sub154           rainGage         AY0595           5.5208   94.81    128.8500 1.00     0.00                     
sub155           rainGage         CY0494           2.6307   81.97    130.6510 1.11     0.00                     
sub156           rainGage         CY0447           7.3214   78.94    257.5610 0.99     0.00                     
sub157           rainGage         CY0508           3.5256   94.49    100.3620 0.83     0.00                     
sub158           rainGage         AP0153           8.4619   89.61    224.4010 1.45     0.00                     
sub159           rainGage         AP7150           5.3998   88.03    150.3350 1.50     0.00                     
sub160           rainGage         BY34074          4.2109   85.44    153.5010 1.39     0.00                     
sub161           rainGage         BY34055          6.6292   86.14    232.1500 1.36     0.00                     
sub162           rainGage         BY74433          2.1982   88.34    62.8885  1.43     0.00                     
sub163           rainGage         BY51479          3.3060   72.67    128.8850 1.08     0.00                     
sub164           rainGage         BY34916          3.5128   97.14    141.1430 1.28     0.00                     
sub165           rainGage         BY34103          8.4338   57.13    230.0240 1.65     0.00                     
sub166           rainGage         BY51490          5.3986   74.73    179.6570 0.84     0.00                     
sub167           rainGage         BY130091         7.0545   93.58    219.2180 1.25     0.00                     
sub168           rainGage         BY34151          10.8554  96.34    266.0770 0.88     0.00                     
sub169           rainGage         BY182465         8.4218   88.05    251.5350 0.97     0.00                     
sub170           rainGage         CY0769           3.3816   99.04    118.7130 1.27     0.00                     
sub171           rainGage         BY45055          11.3539  99.01    220.9460 1.10     0.00                     
sub172           rainGage         BY87698          3.7065   99.53    121.6800 0.85     0.00                     
sub173           rainGage         CY0711           7.0652   96.75    202.3870 1.12     0.00                     
sub174           rainGage         BY26756          5.7517   95.77    187.4650 1.03     0.00                     
sub175           rainGage         CY0595           2.9713   99.29    108.9160 1.11     0.00                     
sub176           rainGage         BY34018          4.6356   94.20    127.0540 2.01     0.00                     
sub177           rainGage         CY0642           3.0375   98.10    96.4802  1.42     0.00                     
sub178           rainGage         BY34053          4.1802   96.84    132.1640 2.78     0.00                     
sub179           rainGage         BY34035          5.9952   97.68    175.1670 6.25     0.00                     
sub180           rainGage         BY28807          4.6958   99.55    148.7340 1.32     0.00                     
sub181           rainGage         CY0563           7.0346   99.98    210.6580 1.15     0.00                     
sub182           rainGage         BY34202          3.3768   97.88    108.1890 1.19     0.00                     
sub183           rainGage         BY34221          2.7856   92.26    88.1075  1.17     0.00                     
sub184           rainGage         CY0841           3.7673   97.40    139.7050 1.23     0.00                     
sub185           rainGage         BY127985         2.8533   79.03    117.2540 5.23     0.00                     
sub186           rainGage         BY127849         8.1710   85.86    177.0150 6.20     0.00                     
sub187           rainGage         BP0035           3.4684   89.32    142.6720 0.60     0.00                     
sub188           rainGage         5338             5.1529   84.74    176.7410 7.34     0.00                     
sub189           rainGage         3040             2.5967   26.45    109.3910 1.18     0.00                     
sub190           rainGage         BY0277           3.5672   91.64    125.0810 3.57     0.00                     
sub191           rainGage         BY0270           1.3510   77.23    97.2696  3.98     0.00                     
sub192           rainGage         BY0231           7.8664   55.73    204.9460 5.11     0.00                     
sub193           rainGage         5327             17.3780  6.79     341.7720 2.08     0.00                     
sub194           rainGage         AY0088           3.1325   39.97    114.0420 6.98     0.00                     
sub195           rainGage         BY90509          20.6990  11.42    293.2090 1.59     0.00                     
sub196           rainGage         5516             13.0064  93.91    211.8080 3.33     0.00                     
sub197           rainGage         CY0891           12.0946  90.71    284.5160 1.62     0.00                     
sub198           rainGage         CY0892           15.5103  92.68    298.5800 2.59     0.00                     
sub199           rainGage         5512             5.9634   83.34    151.3220 1.35     0.00                     
sub200           rainGage         AY235218         12.4768  72.14    230.2220 0.91     0.00                     
sub201           rainGage         BY128805         5.4099   67.02    99.9450  0.15     0.00                     
sub202           rainGage         5690             4.3261   84.26    97.6700  0.21     0.00                     
sub203           rainGage         BY128773         4.0130   87.17    74.8966  0.10     0.00                     
sub204           rainGage         BY128730         12.7505  71.86    211.9380 0.19     0.00                     
sub205           rainGage         5512             11.4904  69.35    232.6250 0.69     0.00                     
sub206           rainGage         BY128827         9.3860   52.93    196.5400 0.16     0.00                     
sub207           rainGage         BY128918         13.3305  65.98    248.8550 0.39     0.00                     
sub208           rainGage         BY129033         7.2345   81.25    216.6230 0.15     0.00                     
sub209           rainGage         BY128866         5.1567   81.11    117.4610 0.28     0.00                     
sub210           rainGage         BY128867         7.1918   78.05    136.2890 0.28     0.00                     
sub211           rainGage         BY128864         9.7009   90.65    197.6660 0.31     0.00                     
sub212           rainGage         BY90454          9.4161   83.31    261.8270 0.31     0.00                     
sub213           rainGage         BY90473          2.8314   96.91    115.6220 0.20     0.00                     
sub214           rainGage         1546             5.5437   91.27    130.6260 1.18     0.00                     
sub215           rainGage         5511             2.1338   77.22    104.7160 0.86     0.00                     
sub216           rainGage         5510             2.5774   93.19    106.0960 0.98     0.00                     
sub217           rainGage         5510             2.6739   68.61    141.4770 0.94     0.00                     
sub218           rainGage         5686             4.0685   72.12    123.7370 0.15     0.00                     
sub219           rainGage         5511             18.1912  29.33    222.7530 0.42     0.00                     
sub220           rainGage         BY128961         8.2240   50.20    240.3550 0.07     0.00                     
sub221           rainGage         CY1560           2.2220   98.57    52.8879  1.55     0.00                     
sub222           rainGage         CP0062           5.9270   88.09    159.4080 1.36     0.00                     
sub223           rainGage         BY58767          6.0206   91.87    146.4180 2.46     0.00                     
sub224           rainGage         BY58765          9.8371   89.87    245.0000 0.98     0.00                     
sub225           rainGage         5564             23.4391  42.26    364.4890 0.40     0.00                     
sub226           rainGage         5561             2.1574   33.60    71.8933  0.01     0.00                     
sub227           rainGage         BY84076          14.4672  48.08    254.8750 0.09     0.00                     
sub228           rainGage         BY84174          10.7223  62.06    283.6220 0.13     0.00                     
sub229           rainGage         BP0029           4.9397   80.52    127.5550 0.76     0.00                     
sub230           rainGage         BY0217           1.1193   82.97    52.5487  0.67     0.00                     
sub231           rainGage         BY28929          1.5730   77.06    67.5961  1.38     0.00                     
sub232           rainGage         BP0005           5.0075   83.08    159.3750 1.08     0.00                     
sub233           rainGage         AY0176           3.3113   85.15    170.6150 0.68     0.00                     
sub234           rainGage         AY0313           3.0013   46.53    128.7590 0.77     0.00                     
sub235           rainGage         AY0178           2.0532   88.42    100.6780 0.62     0.00                     
sub236           rainGage         BY0281           4.3384   91.02    153.5630 0.53     0.00                     
sub237           rainGage         BY0191           6.0247   91.01    215.6800 0.60     0.00                     
sub238           rainGage         BY0013           5.3983   75.17    159.3410 3.11     0.00                     
sub239           rainGage         2314             3.3023   88.43    123.2690 0.61     0.00                     
sub240           rainGage         CP0050           5.9594   96.90    171.7480 0.86     0.00                     
sub241           rainGage         CP0041           2.8020   97.16    133.3940 0.66     0.00                     
sub242           rainGage         AY0194           2.5476   83.48    118.5920 0.61     0.00                     
sub243           rainGage         AY0412           3.6135   94.33    142.8830 0.65     0.00                     
sub244           rainGage         AY2587           2.1997   92.85    108.6080 0.28     0.00                     
sub245           rainGage         CP0028           2.1392   98.38    70.1783  0.27     0.00                     
sub246           rainGage         CP0018           4.0677   93.82    155.2830 0.49     0.00                     
sub247           rainGage         CP0021           3.4551   97.40    157.5080 0.76     0.00                     
sub248           rainGage         BP0206           5.6353   91.71    134.4510 0.35     0.00                     
sub249           rainGage         AY0101           4.8711   87.22    133.9230 0.47     0.00                     
sub250           rainGage         AY0026           4.8316   92.51    196.8920 0.94     0.00                     
sub251           rainGage         CY1600           4.0749   68.58    137.4970 6.01     0.00                     
sub252           rainGage         AY0024           2.5574   95.16    126.2130 0.84     0.00                     
sub253           rainGage         BY37891          2.5858   92.31    117.0110 0.81     0.00                     
sub254           rainGage         BY89818          1.5372   89.02    70.5567  0.52     0.00                     
sub255           rainGage         BY81100          2.6576   76.92    107.8150 0.46     0.00                     