[TITLE]
;;Project Title/Notes
INP file created on 2017/6/10 18:21:57 by nnuxd with inpPINS version 0.0.3.0
Title/Notes:

[OPTIONS]
;;Option             Value
FLOW_UNITS           LPS
INFILTRATION         HORTON
FLOW_ROUTING         KINWAVE
LINK_OFFSETS         DEPTH
MIN_SLOPE            0
ALLOW_PONDING        NO
SKIP_STEADY_STATE    NO

START_DATE           06/10/2017
START_TIME           00:00:00
REPORT_START_DATE    06/10/2017
REPORT_START_TIME    00:00:00
END_DATE             06/10/2017
END_TIME             03:00:00
SWEEP_START          01/01
SWEEP_END            12/31
DRY_DAYS             0
REPORT_STEP          00:01:00
WET_STEP             00:01:00
DRY_STEP             01:00:00
ROUTING_STEP         0:00:15 

INERTIAL_DAMPING     PARTIAL
NORMAL_FLOW_LIMITED  BOTH
FORCE_MAIN_EQUATION  D-W
VARIABLE_STEP        0.75
LENGTHENING_STEP     0
MIN_SURFAREA         1.14
MAX_TRIALS           8
HEAD_TOLERANCE       0.0015
SYS_FLOW_TOL         5
LAT_FLOW_TOL         5

[EVAPORATION]
;;Evap Data      Parameters
;;-------------- ----------------
CONSTANT         0
DRY_ONLY         NO

[RAINGAGES]
;;Gage           Format    Interval SCF      Source    
;;-------------- --------- ------ ------ ----------
rain             INTENSITY 0:01     1.0      TIMESERIES 2-yr            

[SUBCATCHMENTS]
;;Subcatchment   Rain Gage        Outlet           Area     %Imperv  Width    %Slope   CurbLen  Snow Pack       
;;-------------- ---------------- ---------------- -------- -------- -------- -------- -------- ----------------
Sub0             rain             WeLL28           0.0787578 44.03715 21.37544 1.46978  0                        
Sub1             rain             WeLL30           0.0717357 26.13653 21.43476 2.2731   0                        
Sub2             rain             WeLL74           0.0359556 70.52045 10.77095 1.95362  0                        
Sub3             rain             WeLL51           0.0239649 99.99794 10.85269 1.87064  0                        
Sub4             rain             WeLL52           0.00886972 100.0023 3.190317 1        0                        
Sub5             rain             WeLL52           0.019697 58.38982 8.866133 2.41089  0                        
Sub6             rain             WeLL51           0.00697514 99.97901 2.876584 1.10563  0                        
Sub7             rain             WeLL1            0.00736073 99.93636 2.952322 1.97842  0                        
Sub8             rain             WeLL76           0.00779382 99.96114 2.90489  1        0                        
Sub9             rain             WeLL83           0.0713659 76.59316 21.13794 2.11657  0                        
Sub10            rain             WeLL70           0.120312 20.92349 12.47933 2.18018  0                        
Sub11            rain             WeLL67           0.0271264 89.91203 8.398267 1.69636  0                        
Sub12            rain             WeLL16           0.0419228 82.8207  13.36867 2.19552  0                        
Sub13            rain             WeLL24           0.109128 12.30227 11.38113 3.4629   0                        
Sub14            rain             WeLL24           0.0389186 16.52844 14.62006 2.78109  0                        
Sub15            rain             WeLL45           0.00892982 99.88937 4.126725 1.325    0                        
Sub16            rain             WeLL48           0.00977748 100.0068 3.911774 1.22727  0                        
Sub17            rain             WeLL51           0.0708075 89.64775 14.07676 1.7462   0                        
Sub18            rain             WeLL1            0.0301637 69.01852 11.99352 2.76786  0                        
Sub19            rain             WeLL76           0.0374038 55.31231 12.42404 3.31143  0                        
Sub20            rain             WeLL80           0.024258 74.18855 10.45919 2.0568   0                        
Sub21            rain             WeLL92           0.0417865 33.17253 16.61755 3.3818   0                        
Sub22            rain             WeLL106          0.00971163 99.99825 3.884497 1.31343  0                        
Sub23            rain             Node3            0.0584302 69.77764 9.7631   2.85017  0                        
Sub24            rain             WeLL44           0.0213461 36.95484 8.867605 3.38928  0                        
Sub25            rain             WeLL57           0.0717196 88.59454 14.25809 1.78854  0                        
Sub26            rain             WeLL87           0.0272092 40.65317 13.93272 3.16486  0                        
Sub27            rain             WeLL89           0.0546592 72.18317 16.20252 2.03648  0                        
Sub28            rain             WeLL73           0.045965 37.71383 11.94672 1.49725  0                        
Sub29            rain             WeLL74           0.0266782 76.80168 11.06704 1.68199  0                        
Sub30            rain             WeLL86           0.0533123 78.74937 14.96864 1.92811  0                        
Sub31            rain             Node0            0.0252577 8.409782 4.889691 4.4902   0                        
Sub32            rain             Node4            0.0753948 21.98676 17.24059 3.37703  0                        
Sub33            rain             Node2            0.0801706 56.97923 14.02957 2.58752  0                        
Sub34            rain             Node4            0.0686233 32.7347  12.45771 3.39743  0                        
Sub35            rain             Node5            0.0494293 63.43633 9.588799 2.98812  0                        
Sub36            rain             WeLL39           0.11775  17.30091 16.34191 3.66694  0                        
Sub37            rain             WeLL72           0.053796 31.68497 10.26994 3.80146  0                        
Sub38            rain             WeLL28           0.0328589 41.69802 8.915724 2.85329  0                        
Sub39            rain             WeLL68           0.0891774 25.07331 25.39364 2.37149  0                        
Sub40            rain             WeLL64           0.0179223 54.82421 9.811836 2.80435  0                        
Sub41            rain             WeLL68           0.0257412 55.19693 9.325846 2.65067  0                        
Sub42            rain             WeLL70           0.0272504 54.68618 12.78941 2.43194  0                        
Sub43            rain             WeLL32           0.0126747 68.71407 5.870906 3.06667  0                        
Sub44            rain             WeLL35           0.068539 91.194   13.62577 1.56734  0                        
Sub45            rain             WeLL30           0.0283716 71.05913 9.282078 1.9308   0                        
Sub46            rain             WeLL28           0.017744 54.49591 9.860517 3        0                        
Sub47            rain             WeLL38           0.0894938 30.28009 16.19856 3.63616  0                        
Sub48            rain             WeLL53           0.0347925 21.01056 14.26858 3.99434  0                        
Sub49            rain             WeLL9            0.0113248 70.80909 4.59741  1.95595  0                        
Sub50            rain             WeLL33           0.0481181 24.3457  13.57658 3.52187  0                        
Sub51            rain             WeLL64           0.0265321 26.67054 9.269828 3.95733  0                        
Sub52            rain             WeLL66           0.0304138 73.17263 8.866997 2.12219  0                        
Sub53            rain             WeLL67           0.021126 63.19854 8.126635 2.56713  0                        
Sub54            rain             WeLL55           0.069718 89.60992 13.86016 1.61084  0                        
Sub55            rain             WeLL11           0.0750072 22.76767 22.03178 4.09915  0                        
Sub56            rain             WeLL13           0.0407357 30.30124 14.86976 3.60896  0                        
Sub57            rain             WeLL56           0.0719634 88.47102 14.37399 1.76808  0                        
Sub58            rain             WeLL58           0.0720007 88.51261 14.31397 1.66871  0                        
Sub59            rain             WeLL11           0.0317287 65.17254 12.03303 2.09422  0                        
Sub60            rain             WeLL13           0.0759042 40.20366 15.22957 2.65362  0                        
Sub61            rain             WeLL80           0.0178622 71.65362 5.392362 1.20354  0                        
Sub62            rain             WeLL8            0.132163 15.50942 14.1233  2.96122  0                        
Sub63            rain             WeLL8            0.131158 17.60887 17.19406 2.59834  0                        
Sub64            rain             WeLL53           0.0169146 29.04293 9.354385 2.45797  0                        
Sub65            rain             WeLL95           0.0108876 99.89841 4.666981 1.31915  0                        
Sub66            rain             WeLL96           0.019813 24.74487 11.64512 3.14005  0                        
Sub67            rain             WeLL105          0.0260501 63.75    11.16162 2.41541  0                        
Sub68            rain             WeLL105          0.0166661 99.99837 5.15372  1.3      0                        
Sub69            rain             WeLL25           0.0449763 29.87431 9.36382  2.69464  0                        
Sub70            rain             WeLL37           0.0123942 99.98322 6.142128 1.4186   0                        
Sub71            rain             WeLL25           0.0417388 41.85954 13.93895 3.58657  0                        
Sub72            rain             WeLL4            0.0281542 72.89636 11.34198 1.65679  0                        
Sub73            rain             WeLL2            0.0285771 70.36931 11.87694 1.80961  0                        
Sub74            rain             WeLL2            0.038764 35.45908 11.50165 3.20532  0                        
Sub75            rain             WeLL9            0.0271149 35.1343  13.43785 2.82459  0                        
Sub76            rain             WeLL9            0.0297853 42.57503 15.78447 2.95207  0                        
Sub77            rain             WeLL16           0.0357521 29.39289 11.08902 3.99181  0                        
Sub78            rain             WeLL70           0.0202107 59.97549 7.467191 1        0                        
Sub79            rain             WeLL87           0.0667086 49.89164 19.55003 2.76798  0                        
Sub80            rain             WeLL83           0.0116671 48.97402 6.511385 3.82353  0                        
Sub81            rain             WeLL78           0.0394913 91.4314  15.48618 1.74093  0                        
Sub82            rain             Node1            0.0592016 21.01076 12.11509 4.20248  0                        

[SUBAREAS]
;;Subcatchment   N-Imperv   N-Perv     S-Imperv   S-Perv     PctZero    RouteTo    PctRouted 
;;-------------- ---------- ---------- ---------- ---------- ---------- ---------- ----------
Sub0             0.012      0.24       1.524      5.08       5          OUTLET    
Sub1             0.012      0.24       1.524      5.08       5          OUTLET    
Sub2             0.012      0.24       1.524      5.08       5          OUTLET    
Sub3             0.012      0.24       1.524      5.08       5          OUTLET    
Sub4             0.012      0.24       1.524      5.08       5          OUTLET    
Sub5             0.012      0.24       1.524      5.08       5          OUTLET    
Sub6             0.012      0.24       1.524      5.08       5          OUTLET    
Sub7             0.012      0.24       1.524      5.08       5          OUTLET    
Sub8             0.012      0.24       1.524      5.08       5          OUTLET    
Sub9             0.012      0.24       1.524      5.08       5          OUTLET    
Sub10            0.012      0.24       1.524      5.08       5          OUTLET    
Sub11            0.012      0.24       1.524      5.08       5          OUTLET    
Sub12            0.012      0.24       1.524      5.08       5          OUTLET    
Sub13            0.012      0.24       1.524      5.08       5          OUTLET    
Sub14            0.012      0.24       1.524      5.08       5          OUTLET    
Sub15            0.012      0.24       1.524      5.08       5          OUTLET    
Sub16            0.012      0.24       1.524      5.08       5          OUTLET    
Sub17            0.012      0.24       1.524      5.08       5          OUTLET    
Sub18            0.012      0.24       1.524      5.08       5          OUTLET    
Sub19            0.012      0.24       1.524      5.08       5          OUTLET    
Sub20            0.012      0.24       1.524      5.08       5          OUTLET    
Sub21            0.012      0.24       1.524      5.08       5          OUTLET    
Sub22            0.012      0.24       1.524      5.08       5          OUTLET    
Sub23            0.012      0.24       1.524      5.08       5          OUTLET    
Sub24            0.012      0.24       1.524      5.08       5          OUTLET    
Sub25            0.012      0.24       1.524      5.08       5          OUTLET    
Sub26            0.012      0.24       1.524      5.08       5          OUTLET    
Sub27            0.012      0.24       1.524      5.08       5          OUTLET    
Sub28            0.012      0.24       1.524      5.08       5          OUTLET    
Sub29            0.012      0.24       1.524      5.08       5          OUTLET    
Sub30            0.012      0.24       1.524      5.08       5          OUTLET    
Sub31            0.012      0.24       1.524      5.08       5          OUTLET    
Sub32            0.012      0.24       1.524      5.08       5          OUTLET    
Sub33            0.012      0.24       1.524      5.08       5          OUTLET    
Sub34            0.012      0.24       1.524      5.08       5          OUTLET    
Sub35            0.012      0.24       1.524      5.08       5          OUTLET    
Sub36            0.012      0.24       1.524      5.08       5          OUTLET    
Sub37            0.012      0.24       1.524      5.08       5          OUTLET    
Sub38            0.012      0.24       1.524      5.08       5          OUTLET    
Sub39            0.012      0.24       1.524      5.08       5          OUTLET    
Sub40            0.012      0.24       1.524      5.08       5          OUTLET    
Sub41            0.012      0.24       1.524      5.08       5          OUTLET    
Sub42            0.012      0.24       1.524      5.08       5          OUTLET    
Sub43            0.012      0.24       1.524      5.08       5          OUTLET    
Sub44            0.012      0.24       1.524      5.08       5          OUTLET    
Sub45            0.012      0.24       1.524      5.08       5          OUTLET    
Sub46            0.012      0.24       1.524      5.08       5          OUTLET    
Sub47            0.012      0.24       1.524      5.08       5          OUTLET    
Sub48            0.012      0.24       1.524      5.08       5          OUTLET    
Sub49            0.012      0.24       1.524      5.08       5          OUTLET    
Sub50            0.012      0.24       1.524      5.08       5          OUTLET    
Sub51            0.012      0.24       1.524      5.08       5          OUTLET    
Sub52            0.012      0.24       1.524      5.08       5          OUTLET    
Sub53            0.012      0.24       1.524      5.08       5          OUTLET    
Sub54            0.012      0.24       1.524      5.08       5          OUTLET    
Sub55            0.012      0.24       1.524      5.08       5          OUTLET    
Sub56            0.012      0.24       1.524      5.08       5          OUTLET    
Sub57            0.012      0.24       1.524      5.08       5          OUTLET    
Sub58            0.012      0.24       1.524      5.08       5          OUTLET    
Sub59            0.012      0.24       1.524      5.08       5          OUTLET    
Sub60            0.012      0.24       1.524      5.08       5          OUTLET    
Sub61            0.012      0.24       1.524      5.08       5          OUTLET    
Sub62            0.012      0.24       1.524      5.08       5          OUTLET    
Sub63            0.012      0.24       1.524      5.08       5          OUTLET    
Sub64            0.012      0.24       1.524      5.08       5          OUTLET    
Sub65            0.012      0.24       1.524      5.08       5          OUTLET    
Sub66            0.012      0.24       1.524      5.08       5          OUTLET    
Sub67            0.012      0.24       1.524      5.08       5          OUTLET    
Sub68            0.012      0.24       1.524      5.08       5          OUTLET    
Sub69            0.012      0.24       1.524      5.08       5          OUTLET    
Sub70            0.012      0.24       1.524      5.08       5          OUTLET    
Sub71            0.012      0.24       1.524      5.08       5          OUTLET    
Sub72            0.012      0.24       1.524      5.08       5          OUTLET    
Sub73            0.012      0.24       1.524      5.08       5          OUTLET    
Sub74            0.012      0.24       1.524      5.08       5          OUTLET    
Sub75            0.012      0.24       1.524      5.08       5          OUTLET    
Sub76            0.012      0.24       1.524      5.08       5          OUTLET    
Sub77            0.012      0.24       1.524      5.08       5          OUTLET    
Sub78            0.012      0.24       1.524      5.08       5          OUTLET    
Sub79            0.012      0.24       1.524      5.08       5          OUTLET    
Sub80            0.012      0.24       1.524      5.08       5          OUTLET    
Sub81            0.012      0.24       1.524      5.08       5          OUTLET    
Sub82            0.012      0.24       1.524      5.08       5          OUTLET    

[INFILTRATION]
;;Subcatchment   MaxRate    MinRate    Decay      DryTime    MaxInfil  
;;-------------- ---------- ---------- ---------- ---------- ----------
Sub0             75.25      3.5        4          7          0         
Sub1             75.25      3.5        4          7          0         
Sub2             75.25      3.5        4          7          0         
Sub3             3.0        0.5        4          7          0         
Sub4             75.25      3.5        4          7          0         
Sub5             75.25      3.5        4          7          0         
Sub6             75.25      3.5        4          7          0         
Sub7             75.25      3.5        4          7          0         
Sub8             75.25      3.5        4          7          0         
Sub9             75.25      3.5        4          7          0         
Sub10            75.25      3.5        4          7          0         
Sub11            75.25      3.5        4          7          0         
Sub12            75.25      3.5        4          7          0         
Sub13            75.25      3.5        4          7          0         
Sub14            75.25      3.5        4          7          0         
Sub15            75.25      3.5        4          7          0         
Sub16            75.25      3.5        4          7          0         
Sub17            75.25      3.5        4          7          0         
Sub18            75.25      3.5        4          7          0         
Sub19            75.25      3.5        4          7          0         
Sub20            75.25      3.5        4          7          0         
Sub21            75.25      3.5        4          7          0         
Sub22            75.25      3.5        4          7          0         
Sub23            75.25      3.5        4          7          0         
Sub24            75.25      3.5        4          7          0         
Sub25            75.25      3.5        4          7          0         
Sub26            75.25      3.5        4          7          0         
Sub27            75.25      3.5        4          7          0         
Sub28            75.25      3.5        4          7          0         
Sub29            75.25      3.5        4          7          0         
Sub30            75.25      3.5        4          7          0         
Sub31            75.25      3.5        4          7          0         
Sub32            75.25      3.5        4          7          0         
Sub33            75.25      3.5        4          7          0         
Sub34            75.25      3.5        4          7          0         
Sub35            75.25      3.5        4          7          0         
Sub36            75.25      3.5        4          7          0         
Sub37            75.25      3.5        4          7          0         
Sub38            75.25      3.5        4          7          0         
Sub39            75.25      3.5        4          7          0         
Sub40            75.25      3.5        4          7          0         
Sub41            75.25      3.5        4          7          0         
Sub42            75.25      3.5        4          7          0         
Sub43            75.25      3.5        4          7          0         
Sub44            75.25      3.5        4          7          0         
Sub45            75.25      3.5        4          7          0         
Sub46            75.25      3.5        4          7          0         
Sub47            75.25      3.5        4          7          0         
Sub48            75.25      3.5        4          7          0         
Sub49            75.25      3.5        4          7          0         
Sub50            75.25      3.5        4          7          0         
Sub51            75.25      3.5        4          7          0         
Sub52            75.25      3.5        4          7          0         
Sub53            75.25      3.5        4          7          0         
Sub54            75.25      3.5        4          7          0         
Sub55            75.25      3.5        4          7          0         
Sub56            75.25      3.5        4          7          0         
Sub57            75.25      3.5        4          7          0         
Sub58            75.25      3.5        4          7          0         
Sub59            75.25      3.5        4          7          0         
Sub60            75.25      3.5        4          7          0         
Sub61            75.25      3.5        4          7          0         
Sub62            75.25      3.5        4          7          0         
Sub63            75.25      3.5        4          7          0         
Sub64            75.25      3.5        4          7          0         
Sub65            75.25      3.5        4          7          0         
Sub66            75.25      3.5        4          7          0         
Sub67            75.25      3.5        4          7          0         
Sub68            75.25      3.5        4          7          0         
Sub69            75.25      3.5        4          7          0         
Sub70            75.25      3.5        4          7          0         
Sub71            75.25      3.5        4          7          0         
Sub72            75.25      3.5        4          7          0         
Sub73            75.25      3.5        4          7          0         
Sub74            75.25      3.5        4          7          0         
Sub75            75.25      3.5        4          7          0         
Sub76            75.25      3.5        4          7          0         
Sub77            75.25      3.5        4          7          0         
Sub78            75.25      3.5        4          7          0         
Sub79            75.25      3.5        4          7          0         
Sub80            75.25      3.5        4          7          0         
Sub81            75.25      3.5        4          7          0         
Sub82            75.25      3.5        4          7          0         

[JUNCTIONS]
;;Junction       Invert     MaxDepth   InitDepth  SurDepth   Aponded   
;;-------------- ---------- ---------- ---------- ---------- ----------
;AdminWeLL0
AdminWeLL0       0.46       1          0          0.015      0         
AdminWeLL1       1          1          0          0.015      0         
AdminWeLL2       0.34       1          0          0.015      0         
AdminWeLL3       0.42       1          0          0.015      0         
AdminWeLL4       0.42       1          0          0.015      0         
Node0            3.9        0.3        0          0.015      0         
Node1            3.9        0.3        0          0.015      0         
Node2            3.57       0.3        0          0.015      0         
Node3            3.57       0.3        0          0.015      0         
Node4            3.57       0.3        0          0.015      0         
Node5            3.57       0.3        0          0.015      0         
WeLL0            1.201      1          0          0.015      0         
WeLL1            1.5        1          0          0.015      0         
WeLL2            1.7        1          0          0.015      0         
WeLL3            1.664      1          0          0.015      0         
WeLL4            1.624      1          0          0.015      0         
WeLL5            1.588      1          0          0.015      0         
WeLL6            1.467      1          0          0.015      0         
WeLL7            1.413      1          0          0.015      0         
WeLL8            1.028      1          0          0.015      0         
WeLL9            1.5        1          0          0.015      0         
WeLL10           1.259      1          0          0.015      0         
WeLL11           1.7        1          0          0.015      0         
WeLL12           1.664      1          0          0.015      0         
WeLL13           1.624      1          0          0.015      0         
WeLL14           1.588      1          0          0.015      0         
WeLL15           1.376      1          0          0.015      0         
WeLL16           1.5        1          0          0.015      0         
WeLL17           1.5        1          0          0.015      0         
WeLL18           1.44       1          0          0.015      0         
WeLL19           1.399      1          0          0.015      0         
WeLL20           1.221      1          0          0.015      0         
WeLL21           1.184      1          0          0.015      0         
WeLL22           1.094      1          0          0.015      0         
WeLL23           1.067      1          0          0.015      0         
WeLL24           0.974      1          0          0.015      0         
WeLL25           1.5        1          0          0.015      0         
WeLL26           1.286      1          0          0.015      0         
WeLL27           1.376      1          0          0.015      0         
WeLL28           1.7        1          0          0.015      0         
WeLL29           1.457      1          0          0.015      0         
WeLL30           1.424      1          0          0.015      0         
WeLL31           1.384      1          0          0.015      0         
WeLL32           1.245      1          0          0.015      0         
WeLL33           1.7        1          0          0.015      0         
WeLL34           1.67       1          0          0.015      0         
WeLL35           1.625      1          0          0.015      0         
WeLL36           1.58       1          0          0.015      0         
WeLL37           1.534      1          0          0.015      0         
WeLL38           1.553      1          0          0.015      0         
WeLL39           1.5        1          0          0.015      0         
WeLL40           1.473      1          0          0.015      0         
WeLL41           1.44       1          0          0.015      0         
WeLL42           1.414      1          0          0.015      0         
WeLL43           0.948      1          0          0.015      0         
WeLL44           0.976      1          0          0.015      0         
WeLL45           0.998      1          0          0.015      0         
WeLL46           1.065      1          0          0.015      0         
WeLL47           1.095      1          0          0.015      0         
WeLL48           1.177      1          0          0.015      0         
WeLL49           1.466      1          0          0.015      0         
WeLL50           1.437      1          0          0.015      0         
WeLL51           1.412      1          0          0.015      0         
WeLL52           1.345      1          0          0.015      0         
WeLL53           1.7        1          0          0.015      0         
WeLL54           1.673      1          0          0.015      0         
WeLL55           1.627      1          0          0.015      0         
WeLL56           1.331      1          0          0.015      0         
WeLL57           1.427      1          0          0.015      0         
WeLL58           1.139      1          0          0.015      0         
WeLL59           1.64       1          0          0.015      0         
WeLL60           1.614      1          0          0.015      0         
WeLL61           1.581      1          0          0.015      0         
WeLL62           1.543      1          0          0.015      0         
WeLL63           1.564      1          0          0.015      0         
WeLL64           1.7        1          0          0.015      0         
WeLL65           1.657      1          0          0.015      0         
WeLL66           1.617      1          0          0.015      0         